parallel/no_load/20pc/TNB_DUMA_VLN.Txt

SYMMETRICAL COMPONENT VOLTAGES BY BUS (for 3-phase buses)

Bus               Mag:   V1 (kV)    p.u.     V2 (kV)   %V2/V1    V0 (kV)    %V0/V1

ppu_duma_33kv        19.11      1.003  9.32E-009  4.877E-008 1.239E-009 6.485E-009
ppu_duma_11kv         6.37      1.003  3.299E-009  5.179E-008 2.506E-011 3.933E-010
rpplngi2             6.403      1.008  3.314E-009  5.176E-008 2.567E-011 4.009E-010
pdtjlnmasjid         6.428      1.012  3.325E-009  5.173E-008 2.627E-011 4.087E-010
bella                6.444      1.015  3.333E-009  5.172E-008 2.674E-011 4.149E-010
pstpdgn              6.453      1.016  3.337E-009  5.171E-008 2.699E-011 4.182E-010
pamdra               6.374      1.004  3.301E-009  5.179E-008 2.51E-011 3.939E-010
duma4                6.385      1.005  3.306E-009  5.178E-008 2.792E-011 4.373E-010
plsdra                6.41      1.009  3.317E-009  5.176E-008 4.024E-011 6.278E-010
ssu_uptwres_ir1      6.414       1.01  3.319E-009  5.175E-008 4.05E-011 6.315E-010
atria_1              6.415       1.01  3.32E-009  5.175E-008 2.594E-011 4.043E-010
hawker               6.423      1.011  3.323E-009  5.174E-008 3.277E-011 5.102E-010
prmte                  6.4      1.008  3.313E-009  5.176E-008 3.66E-011 5.719E-010
prmta                6.405      1.009  3.315E-009  5.176E-008 3.69E-011 5.761E-010
pmontb               6.409      1.009  3.317E-009  5.176E-008 3.918E-011 6.112E-010
duma7                6.383      1.005  3.305E-009  5.178E-008 2.524E-011 3.954E-010
haus                 6.407      1.009  3.317E-009  5.176E-008 3.165E-011 4.939E-010
duma6                6.475      1.019  3.349E-009  5.172E-008 6.872E-011 1.061E-009
duma13               6.536      1.029  3.378E-009  5.168E-008 1.062E-010 1.625E-009
ssu_duma5_im2        6.544       1.03  3.382E-009  5.168E-008 1.067E-010 1.631E-009
plngi_b              6.387      1.006  3.307E-009  5.178E-008 2.532E-011 3.965E-010
plngi_d              6.395      1.007  3.311E-009  5.177E-008 2.548E-011 3.984E-010
pdtlitrak            6.451      1.016  3.336E-009  5.172E-008 2.701E-011 4.186E-010
duma12               6.484      1.021  3.351E-009  5.169E-008 2.81E-011 4.334E-010
tmngh4               6.515      1.026  3.365E-009  5.166E-008 4.236E-011 6.503E-010
ssu_tmegah3_ir1      6.527      1.028  3.371E-009  5.165E-008 4.992E-011 7.649E-010
tmngh2               6.532      1.029  3.373E-009  5.164E-008 5.335E-011 8.167E-010
sprk9                6.444      1.015  3.333E-009  5.172E-008 2.674E-011 4.149E-010
bomba                6.448      1.015  3.335E-009  5.172E-008 2.774E-011 4.301E-010
sprk8                6.459      1.017  3.339E-009  5.171E-008 3.152E-011 4.881E-010
ssu_uptwres_im2      6.383      1.005  3.305E-009  5.178E-008 2.776E-011 4.349E-010
maybank              6.399      1.008  3.313E-009  5.176E-008 2.846E-011 4.447E-010
duma8                6.402      1.008  3.314E-009  5.176E-008 2.964E-011 4.63E-010
ssu_dsarcntr_ir1     6.379      1.004  3.303E-009  5.178E-008 2.518E-011 3.948E-010
duma9                6.427      1.012  3.325E-009  5.174E-008 2.626E-011 4.085E-010
duma1                 6.45      1.016  3.335E-009  5.171E-008 2.692E-011 4.173E-010
elite                6.458      1.017  3.339E-009  5.17E-008 2.718E-011 4.208E-010
duma10                6.41      1.009  3.317E-009  5.175E-008 2.581E-011 4.026E-010
balaipolis           6.411      1.009  3.318E-009  5.175E-008 2.582E-011 4.028E-010
ppu_duma_vcb1            0          0          0          0         0         0
